512
GENERATED BY SAMSON 2023 R1
C 3.881 -20.938 30.432
C 3.862 -18.074 30.437
H 3.9 -22.022 30.342
C 3.8 -18.718 27.378
C 3.81 -20.284 27.375
H 3.865 -16.989 30.35
H 3.925 -18.309 31.497
H 3.94 -20.705 31.493
C 6.398 -20.831 30.298
C 5.073 -18.697 29.642
C 5.083 -20.295 29.64
C 5.059 -18.206 28.143
C 5.076 -20.781 28.138
H 5.078 -21.872 28.128
C 6.381 -18.146 30.302
H 6.411 -21.919 30.247
C 6.345 -18.7 27.375
C 6.355 -20.268 27.372
H 6.379 -17.057 30.254
H 5.046 -17.116 28.136
H 6.409 -18.381 31.364
H 6.423 -20.597 31.361
C 8.949 -20.819 30.273
C 7.653 -18.688 29.583
C 7.663 -20.269 29.581
C 7.636 -18.192 28.098
C 7.651 -20.762 28.094
H 7.658 -21.852 28.083
C 8.935 -18.124 30.276
H 8.955 -21.907 30.222
C 8.919 -18.686 27.349
C 8.927 -20.25 27.346
H 8.928 -17.036 30.227
H 7.629 -17.102 28.09
H 8.942 -18.363 31.338
H 8.954 -20.582 31.336
C 11.507 -20.807 30.268
C 10.215 -18.672 29.572
C 10.223 -20.256 29.57
C 10.205 -18.178 28.085
C 10.217 -20.747 28.081
H 10.223 -21.837 28.069
C 11.495 -18.11 30.27
H 11.511 -21.895 30.218
C 11.49 -18.673 27.343
C 11.496 -20.238 27.341
H 11.491 -17.022 30.22
H 10.2 -17.087 28.075
H 11.498 -18.349 31.332
H 11.507 -20.568 31.33
C 14.067 -20.798 30.267
C 12.779 -18.661 29.57
C 12.784 -20.245 29.568
C 12.774 -18.167 28.082
C 12.783 -20.736 28.079
H 12.787 -21.826 28.068
C 14.06 -18.102 30.27
H 14.07 -21.886 30.217
C 14.059 -18.664 27.343
C 14.063 -20.229 27.341
H 14.057 -17.013 30.22
H 12.77 -17.076 28.073
H 14.06 -18.34 31.332
H 14.067 -20.559 31.329
C 16.63 -20.793 30.268
C 15.344 -18.654 29.57
C 15.347 -20.238 29.568
C 15.343 -18.16 28.083
C 15.348 -20.729 28.08
H 15.35 -21.82 28.068
C 16.626 -18.097 30.271
H 16.631 -21.881 30.217
C 16.628 -18.659 27.344
C 16.63 -20.224 27.341
H 16.625 -17.009 30.222
H 15.341 -17.069 28.074
H 16.626 -18.336 31.333
H 16.629 -20.555 31.33
C 17.91 -18.651 29.572
C 17.912 -20.235 29.569
C 17.911 -18.157 28.084
C 17.914 -20.726 28.08
H 17.915 -21.816 28.069
H 17.91 -17.066 28.076
C 3.828 -20.85 25.929
C 3.81 -18.147 25.934
H 3.882 -21.937 25.959
C 3.796 -18.708 22.872
C 3.806 -20.276 22.869
H 3.849 -17.059 25.967
C 6.355 -20.764 25.877
C 5.047 -18.7 25.143
C 5.057 -20.277 25.14
C 5.048 -18.194 23.654
C 5.064 -20.777 23.648
H 5.066 -21.867 23.649
C 6.339 -18.199 25.882
H 6.368 -21.854 25.875
C 6.339 -18.69 22.904
C 6.348 -20.261 22.9
H 6.338 -17.108 25.883
H 5.036 -17.104 23.658
C 8.925 -20.753 25.864
C 7.626 -18.689 25.131
C 7.635 -20.255 25.127
C 7.622 -18.181 23.647
C 7.636 -20.757 23.642
H 7.643 -21.847 23.64
C 8.911 -18.179 25.868
H 8.93 -21.843 25.863
C 8.911 -18.676 22.904
C 8.919 -20.244 22.901
H 8.904 -17.088 25.87
H 7.615 -17.091 23.65
C 11.495 -20.741 25.86
C 10.199 -18.674 25.126
C 10.206 -20.242 25.122
C 10.195 -18.167 23.646
C 10.207 -20.743 23.64
H 10.213 -21.834 23.639
C 11.484 -18.165 25.864
H 11.499 -21.832 25.859
C 11.485 -18.663 22.907
C 11.491 -20.232 22.903
H 11.479 -17.075 25.867
H 10.19 -17.077 23.648
C 14.063 -20.732 25.86
C 12.772 -18.663 25.125
C 12.777 -20.231 25.122
C 12.769 -18.156 23.647
C 12.778 -20.733 23.642
H 12.782 -21.823 23.64
C 14.056 -18.156 25.865
H 14.066 -21.823 25.86
C 14.058 -18.655 22.908
C 14.062 -20.223 22.905
H 14.053 -17.066 25.867
H 12.765 -17.065 23.649
C 16.632 -20.727 25.861
C 15.343 -18.656 25.126
C 15.347 -20.224 25.123
C 15.342 -18.148 23.648
C 15.348 -20.726 23.643
H 15.35 -21.817 23.641
C 16.628 -18.151 25.866
H 16.633 -21.818 25.861
C 16.63 -18.649 22.909
C 16.632 -20.218 22.906
H 16.626 -17.06 25.868
H 15.34 -17.058 23.65
C 17.914 -18.652 25.127
C 17.916 -20.22 25.124
C 17.915 -18.145 23.649
C 17.917 -20.722 23.644
H 17.918 -21.813 23.642
H 17.914 -17.054 23.651
C 3.83 -20.841 21.425
C 3.813 -18.136 21.431
H 3.885 -21.929 21.455
C 3.809 -18.696 18.358
C 3.819 -20.266 18.354
H 3.853 -17.048 21.466
C 6.356 -20.755 21.403
C 5.053 -18.69 20.654
C 5.062 -20.267 20.65
C 5.058 -18.184 19.164
C 5.074 -20.766 19.158
H 5.076 -21.856 19.158
C 6.34 -18.189 21.409
H 6.369 -21.846 21.4
C 6.361 -18.677 18.436
C 6.37 -20.253 18.432
H 6.34 -17.099 21.411
H 5.046 -17.094 19.17
C 8.925 -20.745 21.416
C 7.632 -18.679 20.673
C 7.641 -20.246 20.669
C 7.637 -18.169 19.192
C 7.651 -20.749 19.186
H 7.658 -21.839 19.185
C 8.911 -18.169 21.422
H 8.931 -21.835 21.414
C 8.93 -18.663 18.458
C 8.938 -20.236 18.454
H 8.905 -17.079 21.425
H 7.63 -17.079 19.197
C 11.496 -20.733 21.422
C 10.203 -18.664 20.685
C 10.211 -20.233 20.681
C 10.207 -18.155 19.206
C 10.219 -20.735 19.2
H 10.225 -21.825 19.198
C 11.485 -18.156 21.428
H 11.5 -21.824 21.42
C 11.497 -18.65 18.469
C 11.504 -20.224 18.464
H 11.48 -17.066 21.431
H 10.202 -17.064 19.21
C 14.065 -20.725 21.425
C 12.775 -18.653 20.69
C 12.78 -20.222 20.686
C 12.777 -18.144 19.212
C 12.786 -20.725 19.205
H 12.789 -21.815 19.204
C 14.058 -18.147 21.43
H 14.068 -21.815 21.423
C 14.064 -18.642 18.472
C 14.069 -20.215 18.468
H 14.055 -17.057 21.433
H 12.773 -17.053 19.215
C 16.633 -20.72 21.426
C 15.345 -18.647 20.691
C 15.349 -20.215 20.687
C 15.346 -18.137 19.214
C 15.351 -20.718 19.207
H 15.353 -21.808 19.206
C 16.629 -18.142 21.432
H 16.635 -21.81 21.424
C 16.631 -18.637 18.473
C 16.634 -20.21 18.469
H 16.628 -17.051 21.434
H 15.344 -17.047 19.217
C 17.915 -18.643 20.692
C 17.917 -20.212 20.689
C 17.914 -18.134 19.215
C 17.917 -20.715 19.208
H 17.918 -21.805 19.207
H 17.914 -17.043 19.218
C 3.872 -20.831 16.904
C 3.854 -18.123 16.911
H 3.927 -21.919 16.931
H 3.895 -17.035 16.943
C 6.398 -20.754 16.941
C 5.114 -18.682 16.195
C 5.124 -20.252 16.19
C 6.382 -18.168 16.948
H 6.411 -21.844 16.925
H 6.382 -17.077 16.938
C 8.954 -20.741 16.971
C 7.673 -18.671 16.24
C 7.682 -20.23 16.235
C 8.941 -18.15 16.978
H 8.96 -21.831 16.955
H 8.934 -17.06 16.968
C 11.513 -20.729 16.982
C 10.228 -18.656 16.26
C 10.235 -20.217 16.255
C 11.503 -18.137 16.989
H 11.517 -21.819 16.966
H 11.498 -17.047 16.979
C 14.073 -20.72 16.985
C 12.787 -18.645 16.267
C 12.793 -20.207 16.262
C 14.066 -18.129 16.993
H 14.076 -21.81 16.969
H 14.064 -17.039 16.983
C 16.635 -20.715 16.987
C 15.35 -18.639 16.269
C 15.354 -20.2 16.264
C 16.631 -18.125 16.994
H 16.636 -21.806 16.971
H 16.63 -17.034 16.984
C 17.914 -18.636 16.27
C 17.915 -20.197 16.265
H 2.904 -20.639 18.807
H 2.889 -20.612 20.937
H 2.889 -18.337 18.813
H 2.874 -18.376 20.942
H 2.897 -18.414 30.078
H 2.911 -20.61 30.074
H 2.895 -18.361 27.866
H 2.91 -20.655 27.861
H 2.867 -18.387 25.454
H 2.882 -20.621 25.449
H 2.882 -18.351 23.341
H 2.897 -20.647 23.336
H 2.947 -18.366 16.361
H 2.961 -20.598 16.355
C 19.193 -20.792 30.268
C 19.192 -18.096 30.272
H 19.193 -21.88 30.217
C 19.197 -18.657 27.345
C 19.198 -20.222 27.342
H 19.191 -17.007 30.224
H 19.191 -18.336 31.334
H 19.193 -20.555 31.331
C 21.755 -20.792 30.27
C 20.475 -18.65 29.573
C 20.476 -20.235 29.57
C 20.479 -18.156 28.086
C 20.48 -20.725 28.081
H 20.48 -21.815 28.069
C 21.755 -18.096 30.275
H 21.755 -21.88 30.218
C 21.765 -18.657 27.347
C 21.766 -20.221 27.344
H 21.755 -17.008 30.227
H 20.479 -17.065 28.077
H 21.753 -18.336 31.337
H 21.753 -20.556 31.333
C 24.314 -20.792 30.278
C 23.038 -18.651 29.577
C 23.038 -20.235 29.574
C 23.047 -18.156 28.09
C 23.047 -20.725 28.085
H 23.047 -21.815 28.073
C 24.314 -18.097 30.283
H 24.314 -21.88 30.225
C 24.335 -18.657 27.355
C 24.335 -20.221 27.352
H 24.314 -17.009 30.235
H 23.046 -17.065 28.082
H 24.307 -18.337 31.345
H 24.308 -20.556 31.341
C 26.867 -20.787 30.305
C 25.599 -18.653 29.59
C 25.599 -20.234 29.587
C 25.614 -18.155 28.105
C 25.615 -20.725 28.1
H 25.615 -21.816 28.089
C 26.867 -18.102 30.31
H 26.862 -21.875 30.254
C 26.908 -18.655 27.383
C 26.908 -20.223 27.38
H 26.861 -17.013 30.263
H 25.614 -17.065 28.098
H 26.839 -18.338 31.372
H 26.839 -20.555 31.368
C 29.385 -20.876 30.441
C 28.179 -18.644 29.651
C 28.179 -20.241 29.648
C 28.19 -18.153 28.152
C 28.19 -20.727 28.147
H 28.196 -21.818 28.136
C 29.384 -18.012 30.447
H 29.374 -21.96 30.351
C 29.453 -18.655 27.388
C 29.453 -20.221 27.385
H 29.373 -16.927 30.361
H 28.195 -17.062 28.145
H 29.322 -18.248 31.507
H 29.323 -20.644 31.503
C 19.2 -20.725 25.862
C 19.199 -18.149 25.867
H 19.201 -21.815 25.861
C 19.201 -18.647 22.91
C 19.202 -20.215 22.907
H 19.198 -17.058 25.869
C 21.77 -20.724 25.864
C 20.485 -18.651 25.128
C 20.486 -20.219 25.125
C 20.487 -18.144 23.649
C 20.488 -20.721 23.644
H 20.488 -21.811 23.643
C 21.77 -18.148 25.869
H 21.771 -21.815 25.863
C 21.773 -18.646 22.91
C 21.774 -20.215 22.907
H 21.77 -17.058 25.871
H 20.487 -17.053 23.652
C 24.342 -20.723 25.869
C 23.058 -18.651 25.13
C 23.058 -20.219 25.127
C 23.06 -18.144 23.65
C 23.06 -20.72 23.645
H 23.06 -21.81 23.644
C 24.342 -18.149 25.874
H 24.342 -21.814 25.868
C 24.346 -18.646 22.91
C 24.347 -20.215 22.907
H 24.342 -17.058 25.877
H 23.06 -17.053 23.653
C 26.913 -20.719 25.884
C 25.63 -18.651 25.137
C 25.63 -20.218 25.134
C 25.632 -18.144 23.654
C 25.632 -20.72 23.649
H 25.633 -21.81 23.647
C 26.912 -18.153 25.889
H 26.907 -21.809 25.882
C 26.918 -18.645 22.911
C 26.918 -20.216 22.908
H 26.906 -17.063 25.891
H 25.632 -17.054 23.656
C 29.441 -20.787 25.938
C 28.208 -18.646 25.152
C 28.208 -20.223 25.149
C 28.205 -18.14 23.662
C 28.205 -20.723 23.657
H 28.211 -21.813 23.658
C 29.44 -18.084 25.944
H 29.395 -21.875 25.968
C 29.461 -18.646 22.882
C 29.461 -20.213 22.879
H 29.394 -16.996 25.977
H 28.21 -17.05 23.667
C 19.202 -20.717 21.427
C 19.2 -18.139 21.432
H 19.203 -21.808 21.425
C 19.198 -18.635 18.474
C 19.199 -20.208 18.47
H 19.2 -17.049 21.435
C 21.773 -20.716 21.426
C 20.486 -18.642 20.692
C 20.486 -20.211 20.689
C 20.482 -18.133 19.214
C 20.483 -20.714 19.209
H 20.484 -21.804 19.207
C 21.772 -18.139 21.431
H 21.773 -21.807 21.424
C 21.764 -18.635 18.472
C 21.765 -20.208 18.468
H 21.772 -17.049 21.434
H 20.482 -17.042 19.218
C 24.345 -20.715 21.423
C 23.056 -18.642 20.69
C 23.057 -20.21 20.686
C 23.051 -18.133 19.21
C 23.051 -20.713 19.205
H 23.051 -21.804 19.204
C 24.344 -18.14 21.428
H 24.345 -21.805 21.421
C 24.331 -18.635 18.463
C 24.331 -20.208 18.46
H 24.345 -17.05 21.43
H 23.051 -17.043 19.214
C 26.915 -20.71 21.411
C 25.627 -18.643 20.68
C 25.627 -20.209 20.676
C 25.62 -18.133 19.198
C 25.621 -20.713 19.193
H 25.621 -21.803 19.193
C 26.915 -18.144 21.416
H 26.909 -21.801 21.409
C 26.899 -18.634 18.443
C 26.899 -20.21 18.44
H 26.908 -17.054 21.418
H 25.621 -17.043 19.202
C 29.441 -20.779 21.435
C 28.206 -18.637 20.662
C 28.206 -20.214 20.659
C 28.198 -18.132 19.172
C 28.199 -20.714 19.167
H 28.204 -21.804 19.168
C 29.441 -18.075 21.44
H 29.395 -21.867 21.465
C 29.451 -18.636 18.368
C 29.451 -20.206 18.365
H 29.394 -16.987 21.475
H 28.203 -17.041 19.177
C 19.197 -20.714 16.988
C 19.196 -18.123 16.994
H 19.197 -21.804 16.972
H 19.195 -17.033 16.984
C 21.758 -20.714 16.986
C 20.476 -18.636 16.269
C 20.477 -20.197 16.265
C 21.758 -18.123 16.992
H 21.758 -21.804 16.971
H 21.758 -17.032 16.981
C 24.319 -20.714 16.978
C 23.035 -18.636 16.264
C 23.035 -20.198 16.261
C 24.319 -18.123 16.983
H 24.319 -21.805 16.962
H 24.319 -17.033 16.972
C 26.876 -20.712 16.95
C 25.589 -18.638 16.246
C 25.589 -20.197 16.243
C 26.876 -18.126 16.955
H 26.87 -21.802 16.935
H 26.87 -17.035 16.944
C 29.404 -20.772 16.915
C 28.147 -18.632 16.203
C 28.148 -20.203 16.2
C 29.403 -18.065 16.92
H 29.355 -21.86 16.942
H 29.355 -16.976 16.951
H 5.128 -18.313 15.168
H 5.142 -20.615 15.162
H 7.682 -18.301 15.213
H 7.695 -20.594 15.207
H 10.231 -18.286 15.234
H 10.242 -20.58 15.227
H 12.788 -18.276 15.241
H 12.796 -20.57 15.233
H 15.35 -18.269 15.243
H 15.355 -20.564 15.236
H 17.914 -18.267 15.243
H 17.916 -20.561 15.237
H 30.352 -18.345 30.088
H 30.353 -20.541 30.084
H 30.355 -18.292 27.876
H 30.356 -20.586 27.872
H 30.385 -18.317 25.464
H 30.386 -20.551 25.46
H 30.372 -18.283 23.351
H 30.372 -20.578 23.347
H 30.382 -18.308 20.952
H 30.382 -20.544 20.947
H 30.368 -18.271 18.823
H 30.369 -20.573 18.819
H 20.475 -18.267 15.243
H 20.476 -20.561 15.237
H 23.031 -18.268 15.237
H 23.031 -20.562 15.233
H 25.578 -18.269 15.219
H 25.579 -20.562 15.215
H 28.132 -18.264 15.176
H 28.133 -20.566 15.172
H 30.313 -18.301 16.37
H 30.313 -20.533 16.366
