338
Comment line
Si	-6.2213897705078125	-1.9040587544441223	-3.489520847797394
Si	-6.224390268325806	1.9249413907527924	-3.489520847797394
Si	6.272610425949097	5.710940361022949	-3.489520847797394
Si	-1.1833897233009338	1.9319413602352142	-3.489520847797394
Si	-1.1813896149396896	5.779941082000732	-3.489520847797394
Si	8.618611097335815	1.88194140791893	-3.489520847797394
Si	1.2166104465723038	-1.9310587644577026	-3.489520847797394
Si	-8.805390000343323	5.727941393852234	-3.401521146297455
Si	-8.632389903068542	1.913941353559494	-3.489520847797394
Si	1.202610358595848	5.765941143035889	-3.489520847797394
Si	-6.375390291213989	5.7479411363601685	-3.489520847797394
Si	6.215609908103943	1.897941380739212	-3.489520847797394
Si	8.634611964225769	-1.9280587136745453	-3.489520847797394
Si	8.6766117811203	5.681940913200378	-3.489520847797394
Si	-1.1803896725177765	-1.9300585985183716	-3.489520847797394
Si	-8.629390597343445	-1.901058703660965	-3.489520847797394
Si	1.2126103788614273	1.9349414110183716	-3.489520847797394
Si	6.229609847068787	-1.933058649301529	-3.489520847797394
Si	-6.371390223503113	-5.7290589809417725	-3.489520847797394
Si	1.2156103551387787	-5.789058804512024	-3.489520847797394
Si	8.739611506462097	-5.751059055328369	-3.373520076274872
Si	-1.1733897030353546	-5.798059105873108	-3.489520847797394
Si	-8.786389827728271	-5.713059306144714	-3.3425208926200867
Si	6.3386112451553345	-5.758059024810791	-3.489520847797394
H	-5.667172074317932	-1.9124457240104675	-4.884812235832214
H	-5.668489336967468	1.923595368862152	-4.884095788002014
H	5.7298970222473145	5.700143575668335	-4.890642762184143
H	-1.7170386016368866	1.9286803901195526	-4.896705746650696
H	-1.7367275059223175	5.801270008087158	-4.88541305065155
H	9.170887470245361	1.8971693515777588	-4.8868995904922485
H	1.7650794982910156	-1.9536636769771576	-4.888201951980591
H	-9.368832111358643	5.717349052429199	-4.7938597202301025
H	-9.202738404273987	1.9367742538452148	-4.87856924533844
H	1.7545825242996216	5.792483687400818	-4.885764718055725
H	-5.847560167312622	5.764445662498474	-4.895196557044983
H	5.6541091203689575	1.9058293104171753	-4.8821210861206055
H	9.199389219284058	-1.9569247961044312	-4.880610108375549
H	9.200695753097534	5.640491247177124	-4.897506833076477
H	-1.7333626747131348	-1.952257752418518	-4.887319207191467
H	-9.200814962387085	-1.9398356974124908	-4.877530932426453
H	1.7456835508346558	1.9409842789173126	-4.896293878555298
H	5.665966272354126	-1.9340397417545319	-4.881367087364197
H	5.810331702232361	-5.783153176307678	-4.893695116043091
H	-5.89089572429657	-5.727083086967468	-4.9119919538497925
H	1.767442375421524	-5.785805583000183	-4.886276125907898
H	9.311533570289612	-5.748426914215088	-4.764279127120972
H	-1.727505475282669	-5.8006590604782104	-4.885990023612976
H	-9.350616335868835	-5.699290037155151	-4.737479090690613
Si	-0.024632620625197887	7.87244975566864	-0.8154549449682236
Si	-1.8643026053905487	7.645600438117981	-2.2309529781341553
Si	-0.08500361815094948	9.799808263778687	0.5442780256271362
Si	-5.649970173835754	0.011086328886449337	-2.261155843734741
Si	-5.577149987220764	-2.003817707300186	1.9456002116203308
Si	-7.453457713127136	3.875347375869751	-0.7544150203466415
Si	-9.282554388046265	3.7812942266464233	-2.2083479166030884
Si	-7.4921780824661255	5.884307622909546	0.4909180477261543
Si	7.478665709495544	-5.878583788871765	0.508786030113697
Si	7.43977427482605	-3.876020908355713	-0.7449740171432495
Si	5.632666349411011	-5.542140007019043	1.9936081767082214
Si	-3.718893527984619	-3.821272850036621	-0.9513669461011887
Si	-5.672631859779358	-3.838314414024353	-2.276429831981659
Si	-3.743252456188202	-1.9004997611045837	0.4615640267729759
Si	-5.667364001274109	3.850979208946228	-2.261243760585785
Si	-5.580345988273621	1.9872492551803589	1.953417956829071
Si	-3.6941736936569214	1.8810653686523438	0.5366860330104828
Si	-7.453605532646179	1.9282692670822144	0.5424940586090088
Si	11.333158016204834	9.3765389919281	0.5097420513629913
Si	9.303330183029175	-5.788809657096863	1.9996210932731628
Si	-1.770721673965454	-3.8647037744522095	-2.280639111995697
Si	-1.9290216267108917	-5.891495943069458	1.8066760897636414
Si	11.266114711761475	7.536901831626892	-0.924156978726387
Si	0.050279381684958935	-5.93431293964386	0.47782402485609055
Si	-11.202545166015625	-5.642537474632263	0.6003250181674957
Si	-11.155287027359009	-3.7553447484970093	-0.7798269391059875
Si	-9.301910996437073	-5.8270615339279175	1.9689160585403442
Si	3.7611955404281616	7.571171522140503	-0.944300964474678
Si	1.8150843679904938	7.6654112339019775	-2.2485199570655823
Si	3.8087785243988037	9.50806975364685	0.3857230395078659
Si	-5.705897808074951	9.492639303207397	1.860606074333191
Si	-3.727581799030304	9.351236820220947	0.6416350603103638
Si	-7.5966280698776245	9.7587651014328	0.5277270451188087
Si	-11.133105754852295	-1.8617257475852966	0.5787520483136177
Si	-11.124274730682373	-0.00257967971265316	-0.8428289741277695
Si	5.659286379814148	7.643236517906189	-2.3187220096588135
Si	5.662786364555359	5.627650618553162	1.8890830874443054
Si	7.511338591575623	5.931114554405212	0.4017060250043869
Si	3.776075541973114	5.696194171905518	0.4799060523509979
Si	-1.812521517276764	3.8457322120666504	-2.29507178068161
Si	-1.815076619386673	1.9375203549861908	1.9892039895057678
Si	-3.7664365768432617	7.52116322517395	-0.8534199744462967
Si	-5.6844329833984375	7.623080611228943	-2.2303611040115356
Si	7.455927729606628	3.883405327796936	-0.7824350148439407
Si	5.6579941511154175	3.8152146339416504	-2.2666987776756287
Si	0.012903381139039993	0.03504932392388582	-0.8348631113767624
Si	-1.7952725291252136	0.005830326117575169	-2.2994408011436462
Si	-0.007712622173130512	1.9359983503818512	0.5035310238599777
Si	-1.763378530740738	5.60174822807312	1.9191280007362366
Si	-0.009328620508313179	5.818869471549988	0.378120020031929
Si	-3.710971474647522	5.65613329410553	0.5812650173902512
Si	9.256762266159058	3.780384063720703	-2.265164852142334
Si	9.31779146194458	1.8172124028205872	1.994709074497223
Si	11.143887042999268	1.8872073292732239	0.5113750323653221
Si	7.470744252204895	1.945534348487854	0.5234340578317642
Si	1.8264295160770416	0.00901032704859972	-2.292174994945526
Si	1.817004382610321	-1.7728278040885925	1.9203302264213562
Si	11.138068437576294	-0.0006226776167750359	-0.8707829564809799
Si	9.255746603012085	-0.01752368174493313	-2.2755059599876404
Si	-11.196975708007812	5.629819631576538	0.6039640307426453
Si	-11.28724455833435	7.539047598838806	-0.7357409596443176
Si	3.7142837047576904	-3.805684447288513	-0.8705320209264755
Si	1.7987525463104248	-3.8601386547088623	-2.2612008452415466
Si	3.7176215648651123	-1.8865966796875	0.5341440439224243
Si	-5.643817186355591	-5.609807372093201	1.8921300768852234
Si	-7.4557119607925415	-1.9342707097530365	0.5443540215492249
Si	-7.457740902900696	-0.0009776744991540909	-0.7809019833803177
Si	-11.149269342422485	3.753037452697754	-0.788395032286644
Si	11.137747764587402	-1.8581447005271912	0.5513680353760719
Si	-9.308695197105408	5.798744559288025	1.992829144001007
Si	5.653694272041321	-3.8572758436203003	-2.2535228729248047
Si	-7.44747519493103	-3.8761305809020996	-0.7543749362230301
Si	-9.283993244171143	1.7774814367294312	2.032894194126129
Si	9.420639872550964	9.498242139816284	1.846666932106018
Si	7.637435793876648	9.81744647026062	0.3641040250658989
Si	-3.8052555918693542	-5.7502299547195435	0.4269220307469368
Si	9.391676783561707	7.593623399734497	-2.3289260268211365
Si	11.2055504322052	5.669346451759338	0.47550104558467865
Si	1.9279374182224274	9.75138545036316	1.7400020360946655
Si	-9.36900794506073	9.439327120780945	2.0258480310440063
Si	1.8529553711414337	5.766637325286865	1.8086239695549011
Si	-3.7215495109558105	3.7969785928726196	-0.8959979563951492
Si	-7.535378932952881	7.857888340950012	-0.8280780166387558
Si	3.7284645438194275	3.805893659591675	-0.9329430013895035
Si	-3.7166696786880493	0.012042326852679253	-0.9265970438718796
Si	-5.62694251537323	5.558707118034363	1.955937147140503
Si	5.606634020805359	2.0351673662662506	1.9448551535606384
Si	0.03413838101550937	-1.893821656703949	0.42070604860782623
Si	7.461327910423279	-0.0010966742411255836	-0.7830709964036942
Si	0.005282380152493715	-3.912670612335205	-0.7618799805641174
Si	9.301907420158386	-1.7632046341896057	2.019824981689453
Si	3.6838245391845703	-5.633257031440735	0.6642580032348633
Si	-9.283104538917542	-3.7581264972686768	-2.1911099553108215
Si	11.139518022537231	-3.762160539627075	-0.7991299033164978
Si	5.73842465877533	9.588785767555237	1.690891981124878
Si	-7.5105220079422	-5.919446349143982	0.4411330446600914
Si	-9.255838990211487	0.0048203254118561745	-2.2719010710716248
Si	7.532809376716614	7.886977195739746	-0.9482061117887497
Si	1.8060703575611115	3.8426804542541504	-2.287803888320923
Si	-0.006412621587514877	3.8486266136169434	-0.829290971159935
Si	9.337183833122253	5.855935215950012	1.8896201252937317
Si	3.729597330093384	1.9331693649291992	0.515127032995224
Si	11.145529747009277	3.7656456232070923	-0.8759870380163193
Si	5.647671222686768	-0.014545675367116928	-2.2564280033111572
Si	3.732200562953949	0.010778331197798252	-0.889781042933464
Si	-9.435360431671143	7.618867754936218	-2.166386842727661
Si	7.456792593002319	-1.9256816804409027	0.5470750480890274
Si	9.262508153915405	-3.799120783805847	-2.2049519419670105
Si	-1.8329235911369324	-1.8980316817760468	1.817283034324646
Si	11.186192035675049	-5.6319499015808105	0.6018530577421188
Si	1.7753204703330994	-5.764095187187195	2.1174970269203186
Si	-9.287413954734802	-1.7927166819572449	2.035847008228302
Si	-11.127268075942993	1.8591123819351196	0.5729790404438972
Si	1.8462735414505005	1.8803954124450684	1.9284579157829285
Si	-11.313812732696533	9.350711703300476	0.7342010736465454
Si	5.592554211616516	-1.9683696329593658	1.9696059823036194
Si	-1.8603596091270447	9.457142353057861	2.0711979269981384
Si	7.5801390409469604	-9.760044813156128	0.5628680437803268
Si	7.511166334152222	-7.861065864562988	-0.7960540056228638
Si	5.685523152351379	-9.485811591148376	1.886657178401947
Si	-3.7880566716194153	-7.619268894195557	-0.9900640696287155
Si	-5.719326138496399	-7.667636871337891	-2.3268887400627136
Si	9.362269043922424	-9.430426359176636	2.0470312237739563
Si	-1.8172676861286163	-7.68747091293335	-2.2672197222709656
Si	-1.839754581451416	-9.656001925468445	1.764141023159027
Si	0.0879443809390068	-9.812085628509521	0.46174902468919754
Si	-11.323500871658325	-9.367393851280212	0.7244210690259933
Si	-11.300039291381836	-7.550948858261108	-0.7391500473022461
Si	-9.365184307098389	-9.473588466644287	1.9926950335502625
Si	3.764360547065735	-7.486653923988342	-0.8043009787797928
Si	1.9022685289382935	-7.6425886154174805	-2.2306010127067566
Si	-5.692445635795593	-9.55331027507782	1.7828062176704407
Si	5.661715865135193	-7.61009156703949	-2.1969810128211975
Si	-7.537688612937927	-7.90017306804657	-0.8730780333280563
Si	-3.7738174200057983	-9.474999904632568	0.46003803610801697
Si	0.03949838224798441	-7.8898561000823975	-0.859287902712822
Si	3.740079402923584	-9.3599534034729	0.6152830272912979
Si	-9.453243613243103	-7.627485990524292	-2.1743249893188477
Si	11.264879703521729	-7.544328570365906	-0.7335379719734192
Si	-7.606838941574097	-9.804441928863525	0.4800170287489891
Si	9.399956464767456	-7.633308172225952	-2.1452531218528748
Si	11.30098819732666	-9.348018169403076	0.7456370443105698
Si	1.8388614058494568	-9.459507465362549	1.974630057811737
H	5.494088530540466	-8.827633261680603	-3.063049018383026
H	-2.0003946125507355	8.850353956222534	-3.1192269921302795
H	-0.28815263882279396	11.008473634719849	-0.32305896282196045
H	12.5752854347229	9.256103038787842	1.3387781381607056
H	11.451985836029053	10.640708208084106	-0.28859399259090424
H	12.51293420791626	7.463878393173218	-1.7614170908927917
H	-12.445751428604126	-5.557519793510437	1.439875066280365
H	-12.412320375442505	-3.7275028228759766	-1.6049981117248535
H	1.9167134165763855	8.864519596099854	-3.148767054080963
H	3.8536643981933594	10.700541734695435	-0.5304069817066193
H	-5.619499683380127	10.5679190158844	2.903534173965454
H	-3.64384263753891	10.620816946029663	-0.1647929847240448
H	-7.608767151832581	11.003202199935913	-0.31357593834400177
H	-12.413357496261597	-1.8209896981716156	1.3646270334720612
H	-12.392199039459229	-0.005965670570731163	-1.6514500975608826
H	5.529283881187439	8.811601400375366	-3.25393408536911
H	-5.548329949378967	8.829487562179565	-3.1171220541000366
H	12.434089183807373	1.8766224384307861	1.2826479971408844
H	12.396395206451416	-0.00845467671751976	-1.6943711042404175
H	-12.447042465209961	5.543850064277649	1.433546096086502
H	-12.546058893203735	7.4887919425964355	-1.5564548969268799
H	-12.41158127784729	3.7215185165405273	-1.605609953403473
H	12.424371242523193	-1.8306456506252289	1.3280481100082397
H	9.538527131080627	10.781095027923584	2.6278960704803467
H	7.657155990600586	11.038836240768433	-0.5102609843015671
H	9.495919942855835	8.759688138961792	-3.270643949508667
H	12.470790147781372	5.618577003479004	1.2845739722251892
H	2.0634444057941437	10.90948224067688	2.683476209640503
H	-9.46098506450653	10.710207223892212	2.8296032547950745
H	12.395617961883545	-3.7434297800064087	-1.626645028591156
H	5.6448352336883545	10.674952268600464	2.721584141254425
H	12.395226955413818	3.725680112838745	-1.7119890451431274
H	-9.547457098960876	8.803443312644958	-3.0836430191993713
H	12.441620826721191	-5.5495840311050415	1.4236970245838165
H	-12.409588098526001	1.8236903846263885	1.356058120727539
H	-12.535531520843506	9.2197984457016	1.5913951396942139
H	-11.449662446975708	10.625568628311157	-0.04382096230983734
H	-2.0015355944633484	10.652463436126709	2.972865104675293
H	-7.6336318254470825	-11.045010089874268	-0.3665190190076828
H	3.7128135561943054	-10.599709749221802	-0.2391289919614792
H	-11.476644277572632	-10.639894008636475	-0.05380500108003616
H	-12.530924081802368	-9.23041582107544	1.600227952003479
H	-12.558480501174927	-7.502692937850952	-1.5597531199455261
H	0.1606723852455616	-11.047409772872925	-0.3890860080718994
H	-1.9454406201839447	-10.804349184036255	2.723492980003357
H	11.436512470245361	-10.627981424331665	-0.024374984204769135
H	-9.584718346595764	-8.778747916221619	-3.1299707293510437
H	12.516286373138428	-7.498651146888733	-1.566007137298584
H	9.504372477531433	-8.820122480392456	-3.0605340003967285
H	-5.6358009576797485	-8.846105337142944	-3.2547789812088013
H	1.9755065441131592	-10.730816125869751	2.772406041622162
H	-3.7976187467575073	-10.72339653968811	-0.379628986120224
H	2.070201486349106	-8.848211765289307	-3.1108129024505615
H	12.526538372039795	-9.208182096481323	1.596229076385498
H	-9.4534832239151	-10.743076801300049	2.7988091111183167
H	7.596691250801086	-11.002436876296997	-0.28186097741127014
H	5.590924620628357	-10.557276010513306	2.9321089386940002
H	9.461148977279663	-10.696415901184082	2.8579771518707275
H	-5.583062767982483	-10.630735158920288	2.820965051651001
H	-1.8975545465946198	-8.884681463241577	-3.1714987754821777
Si	-1.0544615983963013	7.490236163139343	3.144451081752777
Si	-6.406087875366211	-0.008511673659086227	2.7855220437049866
Si	-8.417986631393433	3.792373538017273	2.781546115875244
Si	-6.083803772926331	-3.8263529539108276	3.4284961223602295
Si	-6.101040840148926	3.7749993801116943	3.473387062549591
Si	-1.2632925808429718	-3.890620470046997	2.9091718792915344
Si	1.278073489665985	7.794317603111267	2.8120681643486023
Si	6.5549129247665405	7.607298493385315	2.6533401012420654
Si	-1.3985565304756165	3.79530668258667	3.4437450766563416
Si	-6.531674861907959	7.50695526599884	2.7910539507865906
Si	6.14757239818573	3.843875527381897	3.4208881855010986
Si	-1.213892623782158	-0.026813670992851257	3.0900782346725464
Si	8.460528254508972	3.84934663772583	2.7089521288871765
Si	1.1032353341579437	0.04649032838642597	3.1549492478370667
Si	8.749224543571472	0.03942432813346386	3.5195592045783997
Si	1.0599054396152496	-3.732157349586487	3.037066161632538
Si	6.1238181591033936	-3.748524785041809	3.495556116104126
Si	8.870039582252502	7.7089643478393555	3.366675078868866
Si	-8.410996794700623	-3.814401626586914	2.755545973777771
Si	-8.717377185821533	-0.008962675929069519	3.5472211241722107
Si	0.9528383612632751	3.848409652709961	2.818818986415863
Si	6.4303672313690186	0.03606732469052076	2.7780330181121826
Si	-8.839024901390076	7.61519730091095	3.509943187236786
Si	8.43512237071991	-3.7710005044937134	2.786233127117157
Si	-6.5158021450042725	-7.568379044532776	2.724694013595581
Si	-0.9685066342353821	-7.732213139533997	2.7781131863594055
Si	1.3250844180583954	-7.687287926673889	3.5172870755195618
Si	6.523836255073547	-7.502472996711731	2.8133729100227356
Si	-8.813550472259521	-7.6544249057769775	3.472314178943634
H	6.100479364395142	3.8559842109680176	4.907313287258148
Si	8.833771347999573	-7.600666880607605	3.52397620677948
H	9.320776462554932	-3.7894684076309204	3.9809292554855347
H	8.6775404214859	7.9974764585494995	4.812889397144318
H	9.329329133033752	3.9807701110839844	3.9088380336761475
H	8.800047636032104	0.23858731612563133	4.992509186267853
H	6.605049967765808	7.522076964378357	3.7187620997428894
H	6.036587357521057	-3.7455135583877563	4.980199038982391
H	5.533295273780823	0.015389327891170979	3.964061141014099
H	-1.8294484913349152	-3.877299427986145	4.284243285655975
H	1.4714744687080383	-3.669530749320984	4.46521133184433
H	-1.7921346426010132	-0.08208869025111198	4.459544122219086
H	1.6366514563560486	0.03443432506173849	4.5439451932907104
H	5.644883513450623	-7.349037528038025	4.0032970905303955
H	8.896262049674988	-7.614195942878723	5.009881258010864
H	-1.8712866306304932	-7.70008385181427	3.9596199989318848
H	1.3694305717945099	-7.746152877807617	5.002738833427429
H	-5.616458058357239	-7.42678701877594	3.900769054889679
H	-8.851737380027771	-7.67677903175354	4.958935081958771
H	-9.27726149559021	-3.8098788261413574	3.9645081758499146
H	-5.996068120002747	-3.846275806427002	4.913053214550018
H	-8.750489950180054	-0.010233670473098755	5.034133195877075
H	-5.4958575963974	-0.008506672456860542	3.96174818277359
H	-1.5188366174697876	3.807925581932068	4.92609828710556
H	1.7891694605350494	3.9590632915496826	4.043695330619812
H	-1.3291436433792114	7.29970395565033	4.59368109703064
H	1.9371764361858368	8.050124049186707	4.120566248893738
H	-8.895917534828186	7.635251879692078	4.995999038219452
H	-5.651082396507263	7.324537634849548	3.975663185119629
H	-9.294313788414001	3.8302773237228394	3.9826440811157227
H	-6.026102304458618	3.7729382514953613	4.958776235580444
C	-4.222532212734222	0.0002084988955175504	13.247828483581543
C	-6.415740251541138	-1.2655964493751526	13.249109983444214
C	-6.415855288505554	1.2656503915786743	13.249748945236206
C	-4.939180612564087	-1.2919369339942932	12.786184549331665
C	-7.175742983818054	9.565729669702705e-05	12.784264087677002
C	-4.939383268356323	1.2923689186573029	12.786544561386108
C	-4.824035465717316	1.493227779865265	11.247153282165527
C	-4.823729693889618	-1.4926235377788544	11.24678373336792
C	-7.403276562690735	0.0003108505188720301	11.244561672210693
Si	-5.681474208831787	0.00019878751118085347	10.462158918380737
H	-4.174078106880188	-7.547489985881839e-05	14.354770183563232
H	-3.1793558597564697	0.00023509279344580136	12.875694036483765
H	-4.4422778487205505	-2.152445614337921	13.277920484542847
H	-6.438969373703003	-1.3040077686309814	14.356240034103394
H	-6.9372546672821045	-2.169957160949707	12.879637479782104
H	-8.170384764671326	-0.00014322680726763792	13.274009227752686
H	-6.43878698348999	1.3029764592647552	14.35692548751831
H	-6.937610507011414	2.170203775167465	12.881162166595459
H	-4.442495703697205	2.1527735888957977	13.278450965881348
H	-3.7582796812057495	-1.5653304755687714	10.955169200897217
H	-5.303276181221008	-2.4469387531280518	10.95529556274414
H	-7.994086742401123	-0.8889885246753693	10.95186710357666
H	-7.993825078010559	0.8898342400789261	10.952041149139404
H	-3.758571743965149	1.566052883863449	10.955628156661987
H	-5.303715467453003	2.447507828474045	10.955796241760254
C	-5.685794353485107	0.00016012329069781117	8.61531674861908
C	-5.689930319786072	0.00013399719136941712	7.383683919906616