28
Tooltip molecule
C       -4.222532212734222      0.0002084988955175504   13.247828483581543
C       -6.415740251541138      -1.2655964493751526     13.249109983444214
C       -6.415855288505554      1.2656503915786743      13.249748945236206
C       -4.939180612564087      -1.2919369339942932     12.786184549331665
C       -7.175742983818054      9.565729669702705e-05   12.784264087677002
C       -4.939383268356323      1.2923689186573029      12.786544561386108
C       -4.824035465717316      1.493227779865265       11.247153282165527
C       -4.823729693889618      -1.4926235377788544     11.24678373336792
C       -7.403276562690735      0.0003108505188720301   11.244561672210693
Si      -5.681474208831787      0.00019878751118085347  10.462158918380737
H       -4.174078106880188      -7.547489985881839e-05  14.354770183563232
H       -3.1793558597564697     0.00023509279344580136  12.875694036483765
H       -4.4422778487205505     -2.152445614337921      13.277920484542847
H       -6.438969373703003      -1.3040077686309814     14.356240034103394
H       -6.9372546672821045     -2.169957160949707      12.879637479782104
H       -8.170384764671326      -0.00014322680726763792 13.274009227752686
H       -6.43878698348999       1.3029764592647552      14.35692548751831
H       -6.937610507011414      2.170203775167465       12.881162166595459
H       -4.442495703697205      2.1527735888957977      13.278450965881348
H       -3.7582796812057495     -1.5653304755687714     10.955169200897217
H       -5.303276181221008      -2.4469387531280518     10.95529556274414
H       -7.994086742401123      -0.8889885246753693     10.95186710357666
H       -7.993825078010559      0.8898342400789261      10.952041149139404
H       -3.758571743965149      1.566052883863449       10.955628156661987
H       -5.303715467453003      2.447507828474045       10.955796241760254
C       -5.685794353485107      0.00016012329069781117  8.61531674861908
C       -5.689930319786072      0.00013399719136941712  7.383683919906616
H       -5.693523287773132      0.00011129985978186596  6.313689947128296
